
OS:Version,
  {092e4e48-bebf-4394-8a9c-e79655c3fd59}, !- Handle
  3.4.0;                                  !- Version Identifier

OS:Site,
  {6a1d885e-ed7e-4eeb-8a75-31e56d2e1a0d}, !- Handle
  Palakkad,                               !- Name
  10.767,                                 !- Latitude {deg}
  76.65,                                  !- Longitude {deg}
  5.5,                                    !- Time Zone {hr}
  97,                                     !- Elevation {m}
  ;                                       !- Terrain

OS:YearDescription,
  {a5f3fb89-3560-4ab0-bc7e-0cb92a1653bb}, !- Handle
  ,                                       !- Calendar Year
  UseWeatherFile;                         !- Day of Week for Start Day

OS:ClimateZones,
  {67603888-ed42-4da6-aa34-5fc64f94d4b0}, !- Handle
  ASHRAE,                                 !- Climate Zone Institution Name 1
  ANSI/ASHRAE Standard 169,               !- Climate Zone Document Name 1
  2006,                                   !- Climate Zone Document Year 1
  ,                                       !- Climate Zone Value 1
  CEC,                                    !- Climate Zone Institution Name 2
  California Climate Zone Descriptions,   !- Climate Zone Document Name 2
  1995,                                   !- Climate Zone Document Year 2
  ;                                       !- Climate Zone Value 2

OS:Building,
  {1d7db066-f615-4219-93bd-e4bab6e0eefe}, !- Handle
  Building,                               !- Name
  ,                                       !- Building Sector Type
  -80,                                    !- North Axis {deg}
  ,                                       !- Nominal Floor to Floor Height {m}
  ,                                       !- Space Type Name
  {4ddd7a99-6447-45a9-bfd1-82b25c7e3819}, !- Default Construction Set Name
  ;                                       !- Default Schedule Set Name

OS:Facility,
  {647be411-d50d-4842-9d02-95bacf4823cb}; !- Handle

OS:SimulationControl,
  {6815befd-378b-4fbc-bea8-3c1a2881e33f}; !- Handle

OS:Sizing:Parameters,
  {c4a40194-750d-471b-a94a-177e244cc562}, !- Handle
  1.25,                                   !- Heating Sizing Factor
  1.15;                                   !- Cooling Sizing Factor

OS:Timestep,
  {0b5009b6-de45-4a6c-91a3-b255346a7707}, !- Handle
  6;                                      !- Number of Timesteps per Hour

OS:ShadowCalculation,
  {5e0f1fad-cb7c-4e37-9739-0183f68730fd}, !- Handle
  PolygonClipping,                        !- Shading Calculation Method
  ,                                       !- Shading Calculation Update Frequency Method
  20,                                     !- Shading Calculation Update Frequency
  15000,                                  !- Maximum Figures in Shadow Overlap Calculations
  ,                                       !- Polygon Clipping Algorithm
  512,                                    !- Pixel Counting Resolution
  ,                                       !- Sky Diffuse Modeling Algorithm
  No,                                     !- Output External Shading Calculation Results
  No,                                     !- Disable Self-Shading Within Shading Zone Groups
  No;                                     !- Disable Self-Shading From Shading Zone Groups to Other Zones

OS:HeatBalanceAlgorithm,
  {5f491ac5-4220-497b-a6ae-eb5d482bbd2e}, !- Handle
  ConductionTransferFunction,             !- Algorithm
  200;                                    !- Surface Temperature Upper Limit {C}

OS:RunPeriod,
  {f4fe203d-87ae-455b-ada1-2d2d66d0438d}, !- Handle
  Run Period 1,                           !- Name
  1,                                      !- Begin Month
  1,                                      !- Begin Day of Month
  12,                                     !- End Month
  31,                                     !- End Day of Month
  ,                                       !- Use Weather File Holidays and Special Days
  ,                                       !- Use Weather File Daylight Saving Period
  ,                                       !- Apply Weekend Holiday Rule
  ,                                       !- Use Weather File Rain Indicators
  ,                                       !- Use Weather File Snow Indicators
  ;                                       !- Number of Times Runperiod to be Repeated

OS:LifeCycleCost:Parameters,
  {13c2f476-bb11-4bb2-82c7-1ab79ed8e7d2}, !- Handle
  FEMP,                                   !- Analysis Type
  ,                                       !- Discounting Convention
  ,                                       !- Inflation Approach
  ,                                       !- Real Discount Rate
  ,                                       !- Nominal Discount Rate
  ,                                       !- Inflation
  ,                                       !- Base Date Month
  ,                                       !- Base Date Year
  ,                                       !- Service Date Month
  ,                                       !- Service Date Year
  ,                                       !- Length of Study Period in Years
  ,                                       !- Tax Rate
  ,                                       !- Depreciation Method
  Yes;                                    !- Use NIST Fuel Escalation Rates

OS:SpaceType,
  {f96d0fbd-848a-4a64-8442-dbb267541725}, !- Handle
  Office - BreakRoom,                     !- Name
  ,                                       !- Default Construction Set Name
  {7f68acaf-9be5-42e4-9e7a-8ea9554a3173}, !- Default Schedule Set Name
  {5605cc04-92eb-46cd-b838-6c2f4ff05aea}, !- Group Rendering Name
  {6f8129d3-464e-45c7-84d4-31af49fd73fa}, !- Design Specification Outdoor Air Object Name
  ,                                       !- Standards Template
  Office,                                 !- Standards Building Type
  BreakRoom;                              !- Standards Space Type

OS:DefaultScheduleSet,
  {7f68acaf-9be5-42e4-9e7a-8ea9554a3173}, !- Handle
  Office - BreakRoom - Schedule Set,      !- Name
  ,                                       !- Hours of Operation Schedule Name
  {240865e7-4363-49ed-8d10-21af9af5a1e7}, !- Number of People Schedule Name
  {1eaa2f0f-407d-4967-949e-9973d02afcb2}, !- People Activity Level Schedule Name
  {582343fd-e213-4f53-bc66-71b4eb6fb373}, !- Lighting Schedule Name
  {71e93393-32d1-4c17-bcc4-5ac23201087b}, !- Electric Equipment Schedule Name
  ,                                       !- Gas Equipment Schedule Name
  ,                                       !- Hot Water Equipment Schedule Name
  {dd240b86-2e5f-4e90-9888-8a4e8824c011}, !- Infiltration Schedule Name
  ,                                       !- Steam Equipment Schedule Name
  ;                                       !- Other Equipment Schedule Name

OS:Rendering:Color,
  {5605cc04-92eb-46cd-b838-6c2f4ff05aea}, !- Handle
  Rendering Color 1,                      !- Name
  230,                                    !- Rendering Red Value
  157,                                    !- Rendering Green Value
  120,                                    !- Rendering Blue Value
  255;                                    !- Rendering Alpha Value

OS:DesignSpecification:OutdoorAir,
  {6f8129d3-464e-45c7-84d4-31af49fd73fa}, !- Handle
  Office - BreakRoom - Ventilation,       !- Name
  Sum,                                    !- Outdoor Air Method
  0.0025,                                 !- Outdoor Air Flow per Person {m3/s-person}
  0.0003,                                 !- Outdoor Air Flow per Floor Area {m3/s-m2}
  ,                                       !- Outdoor Air Flow Rate {m3/s}
  ,                                       !- Outdoor Air Flow Air Changes per Hour {1/hr}
  ;                                       !- Outdoor Air Flow Rate Fraction Schedule Name

OS:Schedule:Ruleset,
  {240865e7-4363-49ed-8d10-21af9af5a1e7}, ! Handle
  Office Misc Occ,                        ! Name
  {37f5e937-34d0-4a1d-9f73-b664cfe2a339}, ! Schedule Type Limits Name
  {2e7ae452-e9c6-458c-90a5-92000679b12e}, ! Default Day Schedule Name
  {0858fc23-c64e-44fb-a1ea-cb3830086fad}, ! Summer Design Day Schedule Name
  {6f2251df-c9a8-400b-a630-4cb1b33b93f1}; ! Winter Design Day Schedule Name

OS:Schedule:Day,
  {2e7ae452-e9c6-458c-90a5-92000679b12e}, ! Handle
  Office Bldg Occ Default Schedule 1,     ! Name
  {37f5e937-34d0-4a1d-9f73-b664cfe2a339}, ! Schedule Type Limits Name
  ,                                       ! Interpolate to Timestep
  6,                                      !- Hour 1
  0,                                      !- Minute 1
  0,                                      !- Value Until Time 1
  7,                                      !- Hour 2
  0,                                      !- Minute 2
  0.100000001490116,                      !- Value Until Time 2
  8,                                      !- Hour 3
  0,                                      !- Minute 3
  0.200000002980232,                      !- Value Until Time 3
  20,                                     !- Hour 4
  0,                                      !- Minute 4
  0.400000005960464,                      !- Value Until Time 4
  22,                                     !- Hour 5
  0,                                      !- Minute 5
  0.100000001490116,                      !- Value Until Time 5
  24,                                     !- Hour 6
  0,                                      !- Minute 6
  0.0500000007450581;                     !- Value Until Time 6

OS:Schedule:Day,
  {0858fc23-c64e-44fb-a1ea-cb3830086fad}, ! Handle
  Office Bldg Occ Summer Design Day 1,    ! Name
  {37f5e937-34d0-4a1d-9f73-b664cfe2a339}, ! Schedule Type Limits Name
  ,                                       ! Interpolate to Timestep
  6,                                      ! Hour 1
  0,                                      ! Minute 1
  0,                                      ! Value Until Time 1
  22,                                     ! Hour 2
  0,                                      ! Minute 2
  1,                                      ! Value Until Time 2
  24,                                     ! Hour 3
  0,                                      ! Minute 3
  0.050000000000000003;                   ! Value Until Time 3

OS:Schedule:Day,
  {6f2251df-c9a8-400b-a630-4cb1b33b93f1}, ! Handle
  Office Bldg Occ Winter Design Day 1,    ! Name
  {37f5e937-34d0-4a1d-9f73-b664cfe2a339}, ! Schedule Type Limits Name
  ,                                       ! Interpolate to Timestep
  24,                                     ! Hour 1
  0,                                      ! Minute 1
  0;                                      ! Value Until Time 1

OS:Schedule:Rule,
  {5ff0e523-6ea6-47d4-806e-05ae60eef0e7}, !- Handle
  Office Misc Occ Rule 1,                 !- Name
  {240865e7-4363-49ed-8d10-21af9af5a1e7}, !- Schedule Ruleset Name
  0,                                      !- Rule Order
  {a48e79b0-6857-4633-8523-77af15c135d5}, !- Day Schedule Name
  Yes,                                    !- Apply Sunday
  No,                                     !- Apply Monday
  No,                                     !- Apply Tuesday
  No,                                     !- Apply Wednesday
  No,                                     !- Apply Thursday
  No,                                     !- Apply Friday
  No,                                     !- Apply Saturday
  DateRange,                              !- Date Specification Type
  1,                                      !- Start Month
  1,                                      !- Start Day
  12,                                     !- End Month
  31;                                     !- End Day

OS:Schedule:Day,
  {a48e79b0-6857-4633-8523-77af15c135d5}, ! Handle
  Office Bldg Occ Rule 1 Day Schedule 1,  ! Name
  {37f5e937-34d0-4a1d-9f73-b664cfe2a339}, ! Schedule Type Limits Name
  ,                                       ! Interpolate to Timestep
  24,                                     ! Hour 1
  0,                                      ! Minute 1
  0;                                      ! Value Until Time 1

OS:Schedule:Ruleset,
  {1eaa2f0f-407d-4967-949e-9973d02afcb2}, ! Handle
  Office Activity,                        ! Name
  {8047e567-ef5e-4576-a8d3-0806de7ab6b6}, ! Schedule Type Limits Name
  {7907ee88-fe31-4a60-bdad-73aa777b0ab4}, ! Default Day Schedule Name
  {3783bfd6-752f-4e75-9db4-757a59a9e064}, ! Summer Design Day Schedule Name
  {68779ac9-3697-4ed2-93a2-9ce3adbd34b2}; ! Winter Design Day Schedule Name

OS:Schedule:Day,
  {7907ee88-fe31-4a60-bdad-73aa777b0ab4}, ! Handle
  Office Activity Default Schedule,       ! Name
  {8047e567-ef5e-4576-a8d3-0806de7ab6b6}, ! Schedule Type Limits Name
  ,                                       ! Interpolate to Timestep
  24,                                     !- Hour 1
  0,                                      !- Minute 1
  132;                                    !- Value Until Time 1

OS:Schedule:Day,
  {3783bfd6-752f-4e75-9db4-757a59a9e064}, ! Handle
  Office Activity Summer Design Day,      ! Name
  {8047e567-ef5e-4576-a8d3-0806de7ab6b6}, ! Schedule Type Limits Name
  ,                                       ! Interpolate to Timestep
  24,                                     !- Hour 1
  0,                                      !- Minute 1
  132;                                    !- Value Until Time 1

OS:Schedule:Day,
  {68779ac9-3697-4ed2-93a2-9ce3adbd34b2}, ! Handle
  Office Activity Winter Design Day,      ! Name
  {8047e567-ef5e-4576-a8d3-0806de7ab6b6}, ! Schedule Type Limits Name
  ,                                       ! Interpolate to Timestep
  24,                                     !- Hour 1
  0,                                      !- Minute 1
  132;                                    !- Value Until Time 1

OS:Schedule:Ruleset,
  {582343fd-e213-4f53-bc66-71b4eb6fb373}, ! Handle
  Office Bldg Light,                      ! Name
  {37f5e937-34d0-4a1d-9f73-b664cfe2a339}, ! Schedule Type Limits Name
  {e4c5851f-9189-41a3-8523-6d0806fe3fdd}, ! Default Day Schedule Name
  {c206ecbd-8844-4f1d-bc31-be064d205472}, ! Summer Design Day Schedule Name
  {aa3effc0-abcc-4e38-9af0-0c3a69a9af71}; ! Winter Design Day Schedule Name

OS:Schedule:Day,
  {e4c5851f-9189-41a3-8523-6d0806fe3fdd}, ! Handle
  Office Bldg Light Default Schedule,     ! Name
  {37f5e937-34d0-4a1d-9f73-b664cfe2a339}, ! Schedule Type Limits Name
  ,                                       ! Interpolate to Timestep
  5,                                      !- Hour 1
  0,                                      !- Minute 1
  0.05,                                   !- Value Until Time 1
  7,                                      !- Hour 2
  0,                                      !- Minute 2
  0.1,                                    !- Value Until Time 2
  8,                                      !- Hour 3
  0,                                      !- Minute 3
  0.3,                                    !- Value Until Time 3
  17,                                     !- Hour 4
  0,                                      !- Minute 4
  0.9,                                    !- Value Until Time 4
  18,                                     !- Hour 5
  0,                                      !- Minute 5
  0.7,                                    !- Value Until Time 5
  20,                                     !- Hour 6
  0,                                      !- Minute 6
  0.5,                                    !- Value Until Time 6
  22,                                     !- Hour 7
  0,                                      !- Minute 7
  0.3,                                    !- Value Until Time 7
  23,                                     !- Hour 8
  0,                                      !- Minute 8
  0.1,                                    !- Value Until Time 8
  24,                                     !- Hour 9
  0,                                      !- Minute 9
  0.05;                                   !- Value Until Time 9

OS:Schedule:Day,
  {c206ecbd-8844-4f1d-bc31-be064d205472}, ! Handle
  Office Bldg Light Summer Design Day,    ! Name
  {37f5e937-34d0-4a1d-9f73-b664cfe2a339}, ! Schedule Type Limits Name
  ,                                       ! Interpolate to Timestep
  24,                                     ! Hour 1
  0,                                      ! Minute 1
  1;                                      ! Value Until Time 1

OS:Schedule:Day,
  {aa3effc0-abcc-4e38-9af0-0c3a69a9af71}, ! Handle
  Office Bldg Light Winter Design Day,    ! Name
  {37f5e937-34d0-4a1d-9f73-b664cfe2a339}, ! Schedule Type Limits Name
  ,                                       ! Interpolate to Timestep
  24,                                     ! Hour 1
  0,                                      ! Minute 1
  0;                                      ! Value Until Time 1

OS:Schedule:Rule,
  {32f059b1-c749-4c97-9d95-f87bb54e6ebe}, !- Handle
  Office Bldg Light Rule 1,               !- Name
  {582343fd-e213-4f53-bc66-71b4eb6fb373}, !- Schedule Ruleset Name
  0,                                      !- Rule Order
  {cccc1785-0a4d-4143-b7dd-2a80749d2964}, !- Day Schedule Name
  Yes,                                    !- Apply Sunday
  No,                                     !- Apply Monday
  No,                                     !- Apply Tuesday
  No,                                     !- Apply Wednesday
  No,                                     !- Apply Thursday
  No,                                     !- Apply Friday
  No,                                     !- Apply Saturday
  DateRange,                              !- Date Specification Type
  1,                                      !- Start Month
  1,                                      !- Start Day
  12,                                     !- End Month
  31;                                     !- End Day

OS:Schedule:Day,
  {cccc1785-0a4d-4143-b7dd-2a80749d2964}, ! Handle
  Office Bldg Light Rule 1 Day Schedule,  ! Name
  {37f5e937-34d0-4a1d-9f73-b664cfe2a339}, ! Schedule Type Limits Name
  ,                                       ! Interpolate to Timestep
  24,                                     ! Hour 1
  0,                                      ! Minute 1
  0.050000000000000003;                   ! Value Until Time 1

OS:Schedule:Ruleset,
  {71e93393-32d1-4c17-bcc4-5ac23201087b}, ! Handle
  Office Bldg Equip,                      ! Name
  {37f5e937-34d0-4a1d-9f73-b664cfe2a339}, ! Schedule Type Limits Name
  {86de286b-4c0b-4f16-b4cd-7e3f6d3c63c9}, ! Default Day Schedule Name
  {b1b7e17b-af14-46a5-b5c0-b6e984d7dd7a}, ! Summer Design Day Schedule Name
  {c15e4bf9-177d-4c19-9b3f-f29e420ba24c}; ! Winter Design Day Schedule Name

OS:Schedule:Day,
  {86de286b-4c0b-4f16-b4cd-7e3f6d3c63c9}, ! Handle
  Office Bldg Equip Default Schedule,     ! Name
  {37f5e937-34d0-4a1d-9f73-b664cfe2a339}, ! Schedule Type Limits Name
  ,                                       ! Interpolate to Timestep
  8,                                      !- Hour 1
  0,                                      !- Minute 1
  0.4,                                    !- Value Until Time 1
  12,                                     !- Hour 2
  0,                                      !- Minute 2
  0.9,                                    !- Value Until Time 2
  13,                                     !- Hour 3
  0,                                      !- Minute 3
  0.8,                                    !- Value Until Time 3
  17,                                     !- Hour 4
  0,                                      !- Minute 4
  0.9,                                    !- Value Until Time 4
  18,                                     !- Hour 5
  0,                                      !- Minute 5
  0.8,                                    !- Value Until Time 5
  20,                                     !- Hour 6
  0,                                      !- Minute 6
  0.6,                                    !- Value Until Time 6
  22,                                     !- Hour 7
  0,                                      !- Minute 7
  0.5,                                    !- Value Until Time 7
  24,                                     !- Hour 8
  0,                                      !- Minute 8
  0.4;                                    !- Value Until Time 8

OS:Schedule:Day,
  {b1b7e17b-af14-46a5-b5c0-b6e984d7dd7a}, ! Handle
  Office Bldg Equip Summer Design Day,    ! Name
  {37f5e937-34d0-4a1d-9f73-b664cfe2a339}, ! Schedule Type Limits Name
  ,                                       ! Interpolate to Timestep
  24,                                     ! Hour 1
  0,                                      ! Minute 1
  1;                                      ! Value Until Time 1

OS:Schedule:Day,
  {c15e4bf9-177d-4c19-9b3f-f29e420ba24c}, ! Handle
  Office Bldg Equip Winter Design Day,    ! Name
  {37f5e937-34d0-4a1d-9f73-b664cfe2a339}, ! Schedule Type Limits Name
  ,                                       ! Interpolate to Timestep
  24,                                     ! Hour 1
  0,                                      ! Minute 1
  0;                                      ! Value Until Time 1

OS:Schedule:Rule,
  {403eb3ae-e9dc-4622-8ec7-b0e28d7ab56d}, !- Handle
  Office Bldg Equip Rule 1,               !- Name
  {71e93393-32d1-4c17-bcc4-5ac23201087b}, !- Schedule Ruleset Name
  0,                                      !- Rule Order
  {6e9ae491-4984-40d2-9e13-a82dd2571ea5}, !- Day Schedule Name
  Yes,                                    !- Apply Sunday
  No,                                     !- Apply Monday
  No,                                     !- Apply Tuesday
  No,                                     !- Apply Wednesday
  No,                                     !- Apply Thursday
  No,                                     !- Apply Friday
  No,                                     !- Apply Saturday
  DateRange,                              !- Date Specification Type
  1,                                      !- Start Month
  1,                                      !- Start Day
  12,                                     !- End Month
  31;                                     !- End Day

OS:Schedule:Day,
  {6e9ae491-4984-40d2-9e13-a82dd2571ea5}, ! Handle
  Office Bldg Equip Rule 1 Day Schedule,  ! Name
  {37f5e937-34d0-4a1d-9f73-b664cfe2a339}, ! Schedule Type Limits Name
  ,                                       ! Interpolate to Timestep
  24,                                     ! Hour 1
  0,                                      ! Minute 1
  0.29999999999999999;                    ! Value Until Time 1

OS:Schedule:Ruleset,
  {dd240b86-2e5f-4e90-9888-8a4e8824c011}, ! Handle
  Office Infil Quarter On,                ! Name
  {37f5e937-34d0-4a1d-9f73-b664cfe2a339}, ! Schedule Type Limits Name
  {399a94bb-e1c3-4efd-a597-101859e6aeed}, ! Default Day Schedule Name
  {dc5b01f1-3adc-4ce8-abed-aa3159c4c79d}, ! Summer Design Day Schedule Name
  {063bc54e-2680-4cf3-9963-c638b6fd0188}; ! Winter Design Day Schedule Name

OS:Schedule:Day,
  {399a94bb-e1c3-4efd-a597-101859e6aeed}, ! Handle
  Office Infil Quarter On Default Schedule, ! Name
  {37f5e937-34d0-4a1d-9f73-b664cfe2a339}, ! Schedule Type Limits Name
  ,                                       ! Interpolate to Timestep
  6,                                      !- Hour 1
  0,                                      !- Minute 1
  1,                                      !- Value Until Time 1
  22,                                     !- Hour 2
  0,                                      !- Minute 2
  0.25,                                   !- Value Until Time 2
  24,                                     !- Hour 3
  0,                                      !- Minute 3
  1;                                      !- Value Until Time 3

OS:Schedule:Day,
  {dc5b01f1-3adc-4ce8-abed-aa3159c4c79d}, ! Handle
  Office Infil Quarter On Summer Design Day, ! Name
  {37f5e937-34d0-4a1d-9f73-b664cfe2a339}, ! Schedule Type Limits Name
  ,                                       ! Interpolate to Timestep
  6,                                      ! Hour 1
  0,                                      ! Minute 1
  1,                                      ! Value Until Time 1
  22,                                     ! Hour 2
  0,                                      ! Minute 2
  0.25,                                   ! Value Until Time 2
  24,                                     ! Hour 3
  0,                                      ! Minute 3
  1;                                      ! Value Until Time 3

OS:Schedule:Day,
  {063bc54e-2680-4cf3-9963-c638b6fd0188}, ! Handle
  Office Infil Quarter On Winter Design Day, ! Name
  {37f5e937-34d0-4a1d-9f73-b664cfe2a339}, ! Schedule Type Limits Name
  ,                                       ! Interpolate to Timestep
  6,                                      ! Hour 1
  0,                                      ! Minute 1
  1,                                      ! Value Until Time 1
  18,                                     ! Hour 2
  0,                                      ! Minute 2
  0.25,                                   ! Value Until Time 2
  24,                                     ! Hour 3
  0,                                      ! Minute 3
  1;                                      ! Value Until Time 3

OS:Schedule:Rule,
  {24ad603b-150a-472a-b4a9-8e502a255bd1}, !- Handle
  Office Infil Quarter On Rule 1,         !- Name
  {dd240b86-2e5f-4e90-9888-8a4e8824c011}, !- Schedule Ruleset Name
  0,                                      !- Rule Order
  {a4a572b0-0bd6-471e-9511-1ab51ab74777}, !- Day Schedule Name
  Yes,                                    !- Apply Sunday
  No,                                     !- Apply Monday
  No,                                     !- Apply Tuesday
  No,                                     !- Apply Wednesday
  No,                                     !- Apply Thursday
  No,                                     !- Apply Friday
  No,                                     !- Apply Saturday
  DateRange,                              !- Date Specification Type
  1,                                      !- Start Month
  1,                                      !- Start Day
  12,                                     !- End Month
  31;                                     !- End Day

OS:Schedule:Day,
  {a4a572b0-0bd6-471e-9511-1ab51ab74777}, ! Handle
  Office Infil Quarter On Rule 1 Day Schedule, ! Name
  {37f5e937-34d0-4a1d-9f73-b664cfe2a339}, ! Schedule Type Limits Name
  ,                                       ! Interpolate to Timestep
  24,                                     ! Hour 1
  0,                                      ! Minute 1
  1;                                      ! Value Until Time 1

OS:ScheduleTypeLimits,
  {37f5e937-34d0-4a1d-9f73-b664cfe2a339}, ! Handle
  Fraction,                               ! Name
  0,                                      ! Lower Limit Value
  1,                                      ! Upper Limit Value
  CONTINUOUS;                             ! Numeric Type

OS:ScheduleTypeLimits,
  {8047e567-ef5e-4576-a8d3-0806de7ab6b6}, !- Handle
  ActivityLevel,                          !- Name
  0,                                      !- Lower Limit Value
  ,                                       !- Upper Limit Value
  Continuous,                             !- Numeric Type
  ActivityLevel;                          !- Unit Type

OS:People,
  {8b1f99bd-852b-48f1-a9b4-17e563efba6d}, !- Handle
  Office - BreakRoom - People,            !- Name
  {d2d1f515-7428-48f1-bdb2-f9e1a31039d6}, !- People Definition Name
  {f96d0fbd-848a-4a64-8442-dbb267541725}, !- Space or SpaceType Name
  ,                                       !- Number of People Schedule Name
  ,                                       !- Activity Level Schedule Name
  ,                                       !- Surface Name/Angle Factor List Name
  ,                                       !- Work Efficiency Schedule Name
  ,                                       !- Clothing Insulation Schedule Name
  ,                                       !- Air Velocity Schedule Name
  1;                                      !- Multiplier

OS:People:Definition,
  {d2d1f515-7428-48f1-bdb2-f9e1a31039d6}, !- Handle
  Office - BreakRoom - People Definition, !- Name
  People/Area,                            !- Number of People Calculation Method
  ,                                       !- Number of People {people}
  0.25,                                   !- People per Space Floor Area {person/m2}
  ,                                       !- Space Floor Area per Person {m2/person}
  0.3;                                    !- Fraction Radiant

OS:Lights,
  {fb9a84e2-5ee3-4ab1-b796-996e06aaaae9}, !- Handle
  Office - BreakRoom - Lights,            !- Name
  {55313fb4-c8c9-4735-88a2-b50a50b5f15d}, !- Lights Definition Name
  {f96d0fbd-848a-4a64-8442-dbb267541725}, !- Space or SpaceType Name
  ,                                       !- Schedule Name
  ,                                       !- Fraction Replaceable
  1,                                      !- Multiplier
  General;                                !- End-Use Subcategory

OS:Lights:Definition,
  {55313fb4-c8c9-4735-88a2-b50a50b5f15d}, !- Handle
  Office - BreakRoom - Lights Definition, !- Name
  Watts/Area,                             !- Design Level Calculation Method
  ,                                       !- Lighting Level {W}
  4,                                      !- Watts per Space Floor Area {W/m2}
  ;                                       !- Watts per Person {W/person}

OS:ElectricEquipment,
  {8d618d33-4698-457e-bbd2-5f34ac39a56b}, !- Handle
  Office - BreakRoom - Electric Equipment, !- Name
  {e39b9e26-758c-43d1-9977-c349500ce484}, !- Electric Equipment Definition Name
  {f96d0fbd-848a-4a64-8442-dbb267541725}, !- Space or SpaceType Name
  ,                                       !- Schedule Name